#!/bin/bash

/homes/phjk/simplesim-wattch/sim-outorder $1 ./nucleic.ss 1