#!/bin/bash

/homes/phjk/simplesim-wattch/sim-outorder $SSFLAGS ./nucleic.ss 1
