#!/bin/bash

/homes/phjk/simplesim-wattch/sim-outorder $SSFLAGS ./probe.ss 48 48 48 0 0 0 5
